cff-version: 1.2.0
message: "If you use this software, please cite it as below."
authors:
- family-names: "The International GEOS-Chem Community"
title: "Implementation of TOMAS in HEMCO for GCHP"
doi: https://doi.org/10.5281/zenodo.10026844
date-released: 2023-10-20
url: ""https://zenodo.org/doi/10.5281/zenodo.10026843
